Version 4
SHEET 1 1168 680
WIRE 672 -96 368 -96
WIRE 816 -96 672 -96
WIRE 368 -32 368 -96
WIRE 672 48 672 -96
WIRE 816 48 816 -96
WIRE -128 128 -256 128
WIRE 48 128 -48 128
WIRE 368 128 368 48
WIRE 368 128 240 128
WIRE 624 128 368 128
WIRE 368 144 368 128
WIRE -256 224 -256 208
WIRE 48 224 -256 224
WIRE 368 224 368 208
WIRE 368 224 240 224
WIRE 672 224 368 224
WIRE 816 224 816 128
WIRE 816 224 672 224
WIRE 672 256 672 224
WIRE -256 272 -256 224
FLAG 672 256 0
FLAG -256 272 0
SYMBOL Optos\\PC817D 144 176 R0
SYMATTR InstName U1
SYMBOL res 352 -48 R0
SYMATTR InstName R1
SYMATTR Value 2.4meg
SYMBOL res -144 144 R270
WINDOW 0 32 56 VTop 2
WINDOW 3 0 56 VBottom 2
SYMATTR InstName R2
SYMATTR Value 3k
SYMBOL res 656 128 R0
SYMATTR InstName R3
SYMATTR Value 95
SYMBOL nmos 624 48 R0
SYMATTR InstName M1
SYMATTR Value STP8NM60
SYMBOL voltage -256 112 R0
WINDOW 123 0 0 Left 2
WINDOW 39 0 0 Left 2
SYMATTR InstName V1
SYMATTR Value 0
SYMBOL voltage 816 32 R0
WINDOW 123 0 0 Left 2
WINDOW 39 0 0 Left 2
SYMATTR InstName V2
SYMATTR Value PWL(0 480 1 40 2 0 3 480)
SYMBOL zener 384 208 R180
WINDOW 0 24 64 Left 2
WINDOW 3 24 0 Left 2
SYMATTR InstName D1
SYMATTR Value BZX84C15L
TEXT -290 296 Left 2 !.tran 4
